dss/export/capas-pablo/1-cooperativa-prefijos-urbano-prefijos/Line.dss
New Line.c_idlinea145_idtramos_1 bus1=c_23 bus2=c_80 length=40.575 units=0 r1=0.000952086 r0=0.00109752 x1=0.00033682 x0=0.00172989 c1=0.0109851 c0=0.0035978200000000007 enabled=true phases=3
New Line.c_idlinea146_idtramos_2 bus1=c_23 bus2=c_1 length=12.926 units=0 r1=0.000952086 r0=0.00109752 x1=0.00033682 x0=0.00172989 c1=0.0109851 c0=0.0035978200000000007 enabled=true phases=3
New Line.c_idlinea146_idtramos_3 bus1=c_1 bus2=c_2 length=41.476 units=0 r1=0.000952086 r0=0.00109752 x1=0.00033682 x0=0.00172989 c1=0.0109851 c0=0.0035978200000000007 enabled=true phases=3
New Line.c_idlinea147_idtramos_4 bus1=c_3 bus2=c_88 length=10.615 units=0 r1=0.000352234 r0=0.000497666 x1=0.000305055 x0=0.00169813 c1=0.012216100000000004 c0=0.0037201300000000003 enabled=true phases=3
New Line.c_idlinea148_idtramos_5 bus1=c_21 bus2=c_24 length=38.666 units=0 r1=0.000952086 r0=0.00109752 x1=0.00033682 x0=0.00172989 c1=0.0109851 c0=0.0035978200000000007 enabled=true phases=3
New Line.c_idlinea149_idtramos_6 bus1=c_37 bus2=c_4 length=28.564 units=0 r1=0.000952086 r0=0.00109752 x1=0.00033682 x0=0.00172989 c1=0.0109851 c0=0.0035978200000000007 enabled=true phases=3
New Line.c_idlinea150_idtramos_7 bus1=c_40 bus2=c_102 length=67.164 units=0 r1=0.000952086 r0=0.00109752 x1=0.00033682 x0=0.00172989 c1=0.0109851 c0=0.0035978200000000007 enabled=true phases=3
New Line.c_idlinea151_idtramos_8 bus1=c_104 bus2=c_43 length=8.713 units=0 r1=0.000952086 r0=0.00109752 x1=0.00033682 x0=0.00172989 c1=0.0109851 c0=0.0035978200000000007 enabled=true phases=3
New Line.c_idlinea152_idtramos_9 bus1=c_104 bus2=c_5 length=11.284 units=0 r1=0.000952086 r0=0.00109752 x1=0.00033682 x0=0.00172989 c1=0.0109851 c0=0.0035978200000000007 enabled=true phases=3
New Line.c_idlinea155_idtramos_10 bus1=c_23 bus2=c_26 length=185.044 units=0 r1=0.000275299 r0=0.000420731 x1=0.000297103 x0=0.00169017 c1=0.012569200000000004 c0=0.0037520900000000013 enabled=true phases=3
New Line.c_idlinea173_idtramos_11 bus1=c_6 bus2=c_46 length=79.298 units=0 r1=0.000952086 r0=0.00109752 x1=0.00033682 x0=0.00172989 c1=0.0109851 c0=0.0035978200000000007 enabled=true phases=3
New Line.c_idlinea174_idtramos_12 bus1=c_7 bus2=c_50 length=60.317 units=0 r1=0.000952086 r0=0.00109752 x1=0.00033682 x0=0.00172989 c1=0.0109851 c0=0.0035978200000000007 enabled=true phases=3
New Line.c_idlinea175_idtramos_13 bus1=c_49 bus2=c_50 length=35.543 units=0 r1=0.000952086 r0=0.00109752 x1=0.00033682 x0=0.00172989 c1=0.0109851 c0=0.0035978200000000007 enabled=true phases=3
New Line.c_idlinea160_idtramos_14 bus1=c_48 bus2=c_8 length=222.605 units=0 r1=0.000952086 r0=0.00109752 x1=0.00033682 x0=0.00172989 c1=0.0109851 c0=0.0035978200000000007 enabled=true phases=3
New Line.c_idlinea160_idtramos_15 bus1=c_8 bus2=c_65 length=16.407 units=0 r1=0.000952086 r0=0.00109752 x1=0.00033682 x0=0.00172989 c1=0.0109851 c0=0.0035978200000000007 enabled=true phases=3
New Line.c_idlinea162_idtramos_16 bus1=c_73 bus2=c_84 length=362.756 units=0 r1=0.000952086 r0=0.00109752 x1=0.00033682 x0=0.00172989 c1=0.0109851 c0=0.0035978200000000007 enabled=true phases=3
New Line.c_idlinea163_idtramos_17 bus1=c_72 bus2=c_74 length=22.841 units=0 r1=0.000952086 r0=0.00109752 x1=0.00033682 x0=0.00172989 c1=0.0109851 c0=0.0035978200000000007 enabled=true phases=3
New Line.c_idlinea164_idtramos_18 bus1=c_68 bus2=c_69 length=22.366 units=0 r1=0.000952086 r0=0.00109752 x1=0.00033682 x0=0.00172989 c1=0.0109851 c0=0.0035978200000000007 enabled=true phases=3
New Line.c_idlinea165_idtramos_19 bus1=c_60 bus2=c_61 length=15.737 units=0 r1=0.00209004 r0=0.00223547 x1=0.000361884 x0=0.00175495 c1=0.0101771 c0=0.003506940000000001 enabled=true phases=3
New Line.c_idlinea166_idtramos_20 bus1=c_55 bus2=c_56 length=20.291 units=0 r1=0.000952086 r0=0.00109752 x1=0.00033682 x0=0.00172989 c1=0.0109851 c0=0.0035978200000000007 enabled=true phases=3
New Line.c_idlinea168_idtramos_21 bus1=c_51 bus2=c_9 length=114.039 units=0 r1=0.000663124 r0=0.000808557 x1=0.000325502 x0=0.00171857 c1=0.011393900000000004 c0=0.0036404500000000004 enabled=true phases=3
New Line.c_idlinea168_idtramos_22 bus1=c_9 bus2=c_53 length=170.108 units=0 r1=0.000663124 r0=0.000808557 x1=0.000325502 x0=0.00171857 c1=0.011393900000000004 c0=0.0036404500000000004 enabled=true phases=3
New Line.c_idlinea170_idtramos_23 bus1=c_54 bus2=c_55 length=193.189 units=0 r1=0.00131006 r0=0.0014555 x1=0.000346644 x0=0.00173971 c1=0.010653400000000004 c0=0.00356164 enabled=true phases=3
New Line.c_idlinea171_idtramos_24 bus1=c_46 bus2=c_10 length=80.513 units=0 r1=0.000952086 r0=0.00109752 x1=0.00033682 x0=0.00172989 c1=0.0109851 c0=0.0035978200000000007 enabled=true phases=3
New Line.c_idlinea172_idtramos_25 bus1=c_31 bus2=c_6 length=22.212 units=0 r1=0.000952086 r0=0.00109752 x1=0.00033682 x0=0.00172989 c1=0.0109851 c0=0.0035978200000000007 enabled=true phases=3
New Line.c_idlinea177_idtramos_26 bus1=c_26 bus2=c_11 length=101.667 units=0 r1=0.000275299 r0=0.000420731 x1=0.000297103 x0=0.00169017 c1=0.012569200000000004 c0=0.0037520900000000013 enabled=true phases=3
New Line.c_idlinea178_idtramos_27 bus1=c_11 bus2=c_28 length=108.454 units=0 r1=0.00048417 r0=0.000629602 x1=0.000315326 x0=0.0017084 c1=0.0117887 c0=0.00367967 enabled=true phases=3
New Line.c_idlinea179_idtramos_28 bus1=c_33 bus2=c_34 length=1141.512 units=0 r1=0.000663124 r0=0.000808557 x1=0.000325502 x0=0.00171857 c1=0.011393900000000004 c0=0.0036404500000000004 enabled=true phases=3
New Line.c_idlinea167_idtramos_29 bus1=c_63 bus2=c_12 length=19.284 units=0 r1=0.00131006 r0=0.0014555 x1=0.000346644 x0=0.00173971 c1=0.010653400000000004 c0=0.00356164 enabled=true phases=3
New Line.c_idlinea169_idtramos_30 bus1=c_13 bus2=c_51 length=276.091 units=0 r1=0.00048417 r0=0.000629602 x1=0.000315326 x0=0.0017084 c1=0.0117887 c0=0.00367967 enabled=true phases=3
New Line.c_idlinea286_idtramos_31 bus1=c_84 bus2=c_14 length=23.774 units=0 r1=0.000952086 r0=0.00109752 x1=0.00033682 x0=0.00172989 c1=0.0109851 c0=0.0035978200000000007 enabled=true phases=3
New Line.c_idlinea286_idtramos_32 bus1=c_14 bus2=c_15 length=10.572 units=0 r1=0.000952086 r0=0.00109752 x1=0.00033682 x0=0.00172989 c1=0.0109851 c0=0.0035978200000000007 enabled=true phases=3
New Line.c_idlinea286_idtramos_33 bus1=c_15 bus2=c_76 length=152.001 units=0 r1=0.000952086 r0=0.00109752 x1=0.00033682 x0=0.00172989 c1=0.0109851 c0=0.0035978200000000007 enabled=true phases=3
New Line.c_idlinea290_idtramos_34 bus1=c_90 bus2=c_94 length=5.009 units=0 r1=0.000352234 r0=0.000497666 x1=0.000305055 x0=0.00169813 c1=0.012216100000000004 c0=0.0037201300000000003 enabled=true phases=3
New Line.c_idlinea161_idtramos_35 bus1=c_67 bus2=c_16 length=20.68 units=0 r1=0.000952086 r0=0.00109752 x1=0.00033682 x0=0.00172989 c1=0.0109851 c0=0.0035978200000000007 enabled=true phases=3
New Line.c_idlinea161_idtramos_36 bus1=c_16 bus2=c_17 length=15.806 units=0 r1=0.000952086 r0=0.00109752 x1=0.00033682 x0=0.00172989 c1=0.0109851 c0=0.0035978200000000007 enabled=true phases=3
New Line.c_idlinea161_idtramos_37 bus1=c_17 bus2=c_68 length=116.776 units=0 r1=0.000952086 r0=0.00109752 x1=0.00033682 x0=0.00172989 c1=0.0109851 c0=0.0035978200000000007 enabled=true phases=3
New Line.c_idlinea710_idtramos_38 bus1=c_89 bus2=c_18 length=12.42 units=0 r1=0.000352234 r0=0.000497666 x1=0.000305055 x0=0.00169813 c1=0.012216100000000004 c0=0.0037201300000000003 enabled=true phases=3
New Line.c_idlinea710_idtramos_39 bus1=c_18 bus2=c_19 length=21.094 units=0 r1=0.000352234 r0=0.000497666 x1=0.000305055 x0=0.00169813 c1=0.012216100000000004 c0=0.0037201300000000003 enabled=true phases=3
New Line.c_idlinea710_idtramos_40 bus1=c_19 bus2=c_90 length=4.716 units=0 r1=0.000352234 r0=0.000497666 x1=0.000305055 x0=0.00169813 c1=0.012216100000000004 c0=0.0037201300000000003 enabled=true phases=3
New Line.c_idlinea712_idtramos_41 bus1=c_93 bus2=c_78 length=155.666 units=0 r1=0.000352234 r0=0.000497666 x1=0.000305055 x0=0.00169813 c1=0.012216100000000004 c0=0.0037201300000000003 enabled=true phases=3
New Line.c_idlinea713_idtramos_42 bus1=c_79 bus2=c_20 length=40.975 units=0 r1=0.000352234 r0=0.000497666 x1=0.000305055 x0=0.00169813 c1=0.012216100000000004 c0=0.0037201300000000003 enabled=true phases=3
New Line.c_idlinea713_idtramos_43 bus1=c_20 bus2=c_21 length=26.842 units=0 r1=0.000352234 r0=0.000497666 x1=0.000305055 x0=0.00169813 c1=0.012216100000000004 c0=0.0037201300000000003 enabled=true phases=3
New Line.c_idlinea714_idtramos_44 bus1=c_21 bus2=c_22 length=41.536 units=0 r1=0.000352234 r0=0.000497666 x1=0.000305055 x0=0.00169813 c1=0.012216100000000004 c0=0.0037201300000000003 enabled=true phases=3
New Line.c_idlinea714_idtramos_45 bus1=c_22 bus2=c_23 length=120.432 units=0 r1=0.000352234 r0=0.000497666 x1=0.000305055 x0=0.00169813 c1=0.012216100000000004 c0=0.0037201300000000003 enabled=true phases=3
New Line.c_idlinea715_idtramos_46 bus1=c_24 bus2=c_25 length=162.672 units=0 r1=0.000952086 r0=0.00109752 x1=0.00033682 x0=0.00172989 c1=0.0109851 c0=0.0035978200000000007 enabled=true phases=3
New Line.c_idlinea716_idtramos_47 bus1=c_26 bus2=c_27 length=3.225 units=0 r1=0.000275299 r0=0.000420731 x1=0.000297103 x0=0.00169017 c1=0.012569200000000004 c0=0.0037520900000000013 enabled=true phases=3
New Line.c_idlinea718_idtramos_48 bus1=c_28 bus2=c_29 length=117.489 units=0 r1=0.00048417 r0=0.000629602 x1=0.000315326 x0=0.0017084 c1=0.0117887 c0=0.00367967 enabled=true phases=3
New Line.c_idlinea719_idtramos_49 bus1=c_29 bus2=c_30 length=136.059 units=0 r1=0.00048417 r0=0.000629602 x1=0.000315326 x0=0.0017084 c1=0.0117887 c0=0.00367967 enabled=true phases=3
New Line.c_idlinea719_idtramos_50 bus1=c_30 bus2=c_31 length=103.104 units=0 r1=0.00048417 r0=0.000629602 x1=0.000315326 x0=0.0017084 c1=0.0117887 c0=0.00367967 enabled=true phases=3
New Line.c_idlinea720_idtramos_51 bus1=c_31 bus2=c_32 length=89.533 units=0 r1=0.00048417 r0=0.000629602 x1=0.000315326 x0=0.0017084 c1=0.0117887 c0=0.00367967 enabled=true phases=3
New Line.c_idlinea721_idtramos_52 bus1=c_32 bus2=c_33 length=136.284 units=0 r1=0.00048417 r0=0.000629602 x1=0.000315326 x0=0.0017084 c1=0.0117887 c0=0.00367967 enabled=true phases=3
New Line.c_idlinea722_idtramos_53 bus1=c_34 bus2=c_35 length=117.111 units=0 r1=0.000663124 r0=0.000808557 x1=0.000325502 x0=0.00171857 c1=0.011393900000000004 c0=0.0036404500000000004 enabled=true phases=3
New Line.c_idlinea723_idtramos_54 bus1=c_25 bus2=c_36 length=145.713 units=0 r1=0.000952086 r0=0.00109752 x1=0.00033682 x0=0.00172989 c1=0.0109851 c0=0.0035978200000000007 enabled=true phases=3
New Line.c_idlinea724_idtramos_55 bus1=c_37 bus2=c_38 length=216.664 units=0 r1=0.000952086 r0=0.00109752 x1=0.00033682 x0=0.00172989 c1=0.0109851 c0=0.0035978200000000007 enabled=true phases=3
New Line.c_idlinea725_idtramos_56 bus1=c_36 bus2=c_37 length=81.082 units=0 r1=0.000952086 r0=0.00109752 x1=0.00033682 x0=0.00172989 c1=0.0109851 c0=0.0035978200000000007 enabled=true phases=3
New Line.c_idlinea726_idtramos_57 bus1=c_38 bus2=c_39 length=349.016 units=0 r1=0.000952086 r0=0.00109752 x1=0.00033682 x0=0.00172989 c1=0.0109851 c0=0.0035978200000000007 enabled=true phases=3
New Line.c_idlinea727_idtramos_58 bus1=c_39 bus2=c_40 length=30.731 units=0 r1=0.000952086 r0=0.00109752 x1=0.00033682 x0=0.00172989 c1=0.0109851 c0=0.0035978200000000007 enabled=true phases=3
New Line.c_idlinea728_idtramos_59 bus1=c_40 bus2=c_41 length=12.44 units=0 r1=0.000952086 r0=0.00109752 x1=0.00033682 x0=0.00172989 c1=0.0109851 c0=0.0035978200000000007 enabled=true phases=3
New Line.c_idlinea729_idtramos_60 bus1=c_104 bus2=c_42 length=23.496 units=0 r1=0.000952086 r0=0.00109752 x1=0.00033682 x0=0.00172989 c1=0.0109851 c0=0.0035978200000000007 enabled=true phases=3
New Line.c_idlinea730_idtramos_61 bus1=c_43 bus2=c_44 length=7.992 units=0 r1=0.000952086 r0=0.00109752 x1=0.00033682 x0=0.00172989 c1=0.0109851 c0=0.0035978200000000007 enabled=true phases=3
New Line.c_idlinea739_idtramos_62 bus1=c_45 bus2=c_105 length=62.183 units=0 r1=0.00048417 r0=0.000629602 x1=0.000315326 x0=0.0017084 c1=0.0117887 c0=0.00367967 enabled=true phases=3
New Line.c_idlinea740_idtramos_63 bus1=c_46 bus2=c_47 length=109.797 units=0 r1=0.000952086 r0=0.00109752 x1=0.00033682 x0=0.00172989 c1=0.0109851 c0=0.0035978200000000007 enabled=true phases=3
New Line.c_idlinea741_idtramos_64 bus1=c_47 bus2=c_48 length=16.795 units=0 r1=0.000952086 r0=0.00109752 x1=0.00033682 x0=0.00172989 c1=0.0109851 c0=0.0035978200000000007 enabled=true phases=3
New Line.c_idlinea742_idtramos_65 bus1=c_48 bus2=c_49 length=81.225 units=0 r1=0.000952086 r0=0.00109752 x1=0.00033682 x0=0.00172989 c1=0.0109851 c0=0.0035978200000000007 enabled=true phases=3
New Line.c_idlinea743_idtramos_66 bus1=c_50 bus2=c_51 length=114.746 units=0 r1=0.000952086 r0=0.00109752 x1=0.00033682 x0=0.00172989 c1=0.0109851 c0=0.0035978200000000007 enabled=true phases=3
New Line.c_idlinea744_idtramos_67 bus1=c_51 bus2=c_52 length=23.296 units=0 r1=0.000952086 r0=0.00109752 x1=0.00033682 x0=0.00172989 c1=0.0109851 c0=0.0035978200000000007 enabled=true phases=3
New Line.c_idlinea745_idtramos_68 bus1=c_53 bus2=c_54 length=11.732 units=0 r1=0.000663124 r0=0.000808557 x1=0.000325502 x0=0.00171857 c1=0.011393900000000004 c0=0.0036404500000000004 enabled=true phases=3
New Line.c_idlinea746_idtramos_69 bus1=c_55 bus2=c_58 length=23.717 units=0 r1=0.00131006 r0=0.0014555 x1=0.000346644 x0=0.00173971 c1=0.010653400000000004 c0=0.00356164 enabled=true phases=3
New Line.c_idlinea747_idtramos_70 bus1=c_56 bus2=c_57 length=261.165 units=0 r1=0.000952086 r0=0.00109752 x1=0.00033682 x0=0.00172989 c1=0.0109851 c0=0.0035978200000000007 enabled=true phases=3
New Line.c_idlinea748_idtramos_71 bus1=c_58 bus2=c_59 length=36.266 units=0 r1=0.00131006 r0=0.0014555 x1=0.000346644 x0=0.00173971 c1=0.010653400000000004 c0=0.00356164 enabled=true phases=3
New Line.c_idlinea749_idtramos_72 bus1=c_60 bus2=c_63 length=9.709 units=0 r1=0.00131006 r0=0.0014555 x1=0.000346644 x0=0.00173971 c1=0.010653400000000004 c0=0.00356164 enabled=true phases=3
New Line.c_idlinea750_idtramos_73 bus1=c_61 bus2=c_62 length=264.579 units=0 r1=0.000952086 r0=0.00109752 x1=0.00033682 x0=0.00172989 c1=0.0109851 c0=0.0035978200000000007 enabled=true phases=3
New Line.c_idlinea751_idtramos_74 bus1=c_63 bus2=c_64 length=275.066 units=0 r1=0.00131006 r0=0.0014555 x1=0.000346644 x0=0.00173971 c1=0.010653400000000004 c0=0.00356164 enabled=true phases=3
New Line.c_idlinea752_idtramos_75 bus1=c_65 bus2=c_66 length=36.386 units=0 r1=0.000952086 r0=0.00109752 x1=0.00033682 x0=0.00172989 c1=0.0109851 c0=0.0035978200000000007 enabled=true phases=3
New Line.c_idlinea752_idtramos_76 bus1=c_66 bus2=c_67 length=19.17 units=0 r1=0.000952086 r0=0.00109752 x1=0.00033682 x0=0.00172989 c1=0.0109851 c0=0.0035978200000000007 enabled=true phases=3
New Line.c_idlinea753_idtramos_77 bus1=c_68 bus2=c_72 length=25.176 units=0 r1=0.000952086 r0=0.00109752 x1=0.00033682 x0=0.00172989 c1=0.0109851 c0=0.0035978200000000007 enabled=true phases=3
New Line.c_idlinea754_idtramos_78 bus1=c_69 bus2=c_70 length=56.014 units=0 r1=0.000952086 r0=0.00109752 x1=0.00033682 x0=0.00172989 c1=0.0109851 c0=0.0035978200000000007 enabled=true phases=3
New Line.c_idlinea754_idtramos_79 bus1=c_70 bus2=c_71 length=70.949 units=0 r1=0.000952086 r0=0.00109752 x1=0.00033682 x0=0.00172989 c1=0.0109851 c0=0.0035978200000000007 enabled=true phases=3
New Line.c_idlinea755_idtramos_80 bus1=c_72 bus2=c_73 length=42.178 units=0 r1=0.000952086 r0=0.00109752 x1=0.00033682 x0=0.00172989 c1=0.0109851 c0=0.0035978200000000007 enabled=true phases=3
New Line.c_idlinea756_idtramos_81 bus1=c_74 bus2=c_75 length=137.521 units=0 r1=0.000952086 r0=0.00109752 x1=0.00033682 x0=0.00172989 c1=0.0109851 c0=0.0035978200000000007 enabled=true phases=3
New Line.c_idlinea758_idtramos_82 bus1=c_76 bus2=c_77 length=89.047 units=0 r1=0.000952086 r0=0.00109752 x1=0.00033682 x0=0.00172989 c1=0.0109851 c0=0.0035978200000000007 enabled=true phases=3
New Line.c_idlinea899_idtramos_83 bus1=c_78 bus2=c_79 length=22.579 units=0 r1=0.000352234 r0=0.000497666 x1=0.000305055 x0=0.00169813 c1=0.012216100000000004 c0=0.0037201300000000003 enabled=true phases=3
New Line.c_idlinea908_idtramos_84 bus1=c_80 bus2=c_81 length=207.223 units=0 r1=0.000952086 r0=0.00109752 x1=0.00033682 x0=0.00172989 c1=0.0109851 c0=0.0035978200000000007 enabled=true phases=3
New Line.c_idlinea909_idtramos_85 bus1=c_82 bus2=c_83 length=170.6 units=0 r1=0.000952086 r0=0.00109752 x1=0.00033682 x0=0.00172989 c1=0.0109851 c0=0.0035978200000000007 enabled=true phases=3
New Line.c_idlinea923_idtramos_86 bus1=c_84 bus2=c_85 length=32.803 units=0 r1=0.000952086 r0=0.00109752 x1=0.00033682 x0=0.00172989 c1=0.0109851 c0=0.0035978200000000007 enabled=true phases=3
New Line.c_idlinea923_idtramos_87 bus1=c_85 bus2=c_86 length=39.723 units=0 r1=0.000952086 r0=0.00109752 x1=0.00033682 x0=0.00172989 c1=0.0109851 c0=0.0035978200000000007 enabled=true phases=3
New Line.c_idlinea923_idtramos_88 bus1=c_86 bus2=c_87 length=39.313 units=0 r1=0.000952086 r0=0.00109752 x1=0.00033682 x0=0.00172989 c1=0.0109851 c0=0.0035978200000000007 enabled=true phases=3
New Line.c_idlinea939_idtramos_89 bus1=c_88 bus2=c_89 length=26.829 units=0 r1=0.000352234 r0=0.000497666 x1=0.000305055 x0=0.00169813 c1=0.012216100000000004 c0=0.0037201300000000003 enabled=true phases=3
New Line.c_idlinea900_idtramos_90 bus1=c_78 bus2=c_82 length=26.248 units=0 r1=0.000952086 r0=0.00109752 x1=0.00033682 x0=0.00172989 c1=0.0109851 c0=0.0035978200000000007 enabled=true phases=3
New Line.c_idlinea891_idtramos_91 bus1=c_90 bus2=c_91 length=20.697 units=0 r1=0.000352234 r0=0.000497666 x1=0.000305055 x0=0.00169813 c1=0.012216100000000004 c0=0.0037201300000000003 enabled=true phases=3
New Line.c_idlinea891_idtramos_92 bus1=c_91 bus2=c_92 length=32.129 units=0 r1=0.000352234 r0=0.000497666 x1=0.000305055 x0=0.00169813 c1=0.012216100000000004 c0=0.0037201300000000003 enabled=true phases=3
New Line.c_idlinea891_idtramos_93 bus1=c_92 bus2=c_93 length=20.725 units=0 r1=0.000352234 r0=0.000497666 x1=0.000305055 x0=0.00169813 c1=0.012216100000000004 c0=0.0037201300000000003 enabled=true phases=3
New Line.c_idlinea897_idtramos_94 bus1=c_94 bus2=c_95 length=7.24 units=0 r1=0.000352234 r0=0.000497666 x1=0.000305055 x0=0.00169813 c1=0.012216100000000004 c0=0.0037201300000000003 enabled=true phases=3
New Line.c_idlinea954_idtramos_95 bus1=c_59 bus2=c_60 length=81.889 units=0 r1=0.00131006 r0=0.0014555 x1=0.000346644 x0=0.00173971 c1=0.010653400000000004 c0=0.00356164 enabled=true phases=3
New Line.c_idlinea955_idtramos_96 bus1=c_59 bus2=c_96 length=45.3 units=0 r1=0.000352234 r0=0.000497666 x1=0.000305055 x0=0.00169813 c1=0.012216100000000004 c0=0.0037201300000000003 enabled=true phases=3
New Line.c_idlinea956_idtramos_97 bus1=c_96 bus2=c_97 length=121.09 units=0 r1=0.000352234 r0=0.000497666 x1=0.000305055 x0=0.00169813 c1=0.012216100000000004 c0=0.0037201300000000003 enabled=true phases=3
New Line.c_idlinea956_idtramos_98 bus1=c_97 bus2=c_98 length=186.876 units=0 r1=0.000352234 r0=0.000497666 x1=0.000305055 x0=0.00169813 c1=0.012216100000000004 c0=0.0037201300000000003 enabled=true phases=3
New Line.c_idlinea956_idtramos_99 bus1=c_98 bus2=c_99 length=235.189 units=0 r1=0.000352234 r0=0.000497666 x1=0.000305055 x0=0.00169813 c1=0.012216100000000004 c0=0.0037201300000000003 enabled=true phases=3
New Line.c_idlinea957_idtramos_100 bus1=c_99 bus2=c_100 length=270.36 units=0 r1=0.000352234 r0=0.000497666 x1=0.000305055 x0=0.00169813 c1=0.012216100000000004 c0=0.0037201300000000003 enabled=true phases=3
New Line.c_idlinea957_idtramos_101 bus1=c_100 bus2=c_101 length=30.08 units=0 r1=0.000352234 r0=0.000497666 x1=0.000305055 x0=0.00169813 c1=0.012216100000000004 c0=0.0037201300000000003 enabled=true phases=3
New Line.c_idlinea961_idtramos_102 bus1=c_102 bus2=c_103 length=10.848 units=0 r1=0.000952086 r0=0.00109752 x1=0.00033682 x0=0.00172989 c1=0.0109851 c0=0.0035978200000000007 enabled=true phases=3
New Line.c_idlinea961_idtramos_103 bus1=c_103 bus2=c_104 length=166.22 units=0 r1=0.000952086 r0=0.00109752 x1=0.00033682 x0=0.00172989 c1=0.0109851 c0=0.0035978200000000007 enabled=true phases=3
New Line.c_idlinea991_idtramos_104 bus1=c_62 bus2=c_105 length=273.675 units=0 r1=0.000663124 r0=0.000808557 x1=0.000325502 x0=0.00171857 c1=0.011393900000000004 c0=0.0036404500000000004 enabled=true phases=3
New Line.c_idlinea908_idtramos_105 bus1=c_81 bus2=c_106 length=117.197 units=0 r1=0.000663124 r0=0.000808557 x1=0.000325502 x0=0.00171857 c1=0.011393900000000004 c0=0.0036404500000000004 enabled=true phases=3
New Line.u_idlinea153_idtramos_1 bus1=u_1 bus2=u_77 length=15.281 units=0 r1=0.000952086 r0=0.00109752 x1=0.00033682 x0=0.00172989 c1=0.0109851 c0=0.0035978200000000007 enabled=true phases=3
New Line.u_idlinea154_idtramos_2 bus1=u_2 bus2=u_3 length=5.281 units=0 r1=0.000275299 r0=0.000420731 x1=0.000297103 x0=0.00169017 c1=0.012569200000000004 c0=0.0037520900000000013 enabled=true phases=3
New Line.u_idlinea158_idtramos_3 bus1=u_123 bus2=u_4 length=112.788 units=0 r1=0.00048417 r0=0.000629602 x1=0.000315326 x0=0.0017084 c1=0.0117887 c0=0.00367967 enabled=true phases=3
New Line.u_idlinea159_idtramos_4 bus1=u_80 bus2=u_5 length=35.059 units=0 r1=0.00048417 r0=0.000629602 x1=0.000315326 x0=0.0017084 c1=0.0117887 c0=0.00367967 enabled=true phases=3
New Line.u_idlinea184_idtramos_5 bus1=u_48 bus2=u_51 length=16.275 units=0 r1=0.000952086 r0=0.00109752 x1=0.00033682 x0=0.00172989 c1=0.0109851 c0=0.0035978200000000007 enabled=true phases=3
New Line.u_idlinea185_idtramos_6 bus1=u_6 bus2=u_60 length=196.542 units=0 r1=0.000663124 r0=0.000808557 x1=0.000325502 x0=0.00171857 c1=0.011393900000000004 c0=0.0036404500000000004 enabled=true phases=3
New Line.u_idlinea186_idtramos_7 bus1=u_61 bus2=u_57 length=28.644 units=0 r1=0.000952086 r0=0.00109752 x1=0.00033682 x0=0.00172989 c1=0.0109851 c0=0.0035978200000000007 enabled=true phases=3
New Line.u_idlinea187_idtramos_8 bus1=u_58 bus2=u_7 length=17.695 units=0 r1=0.000952086 r0=0.00109752 x1=0.00033682 x0=0.00172989 c1=0.0109851 c0=0.0035978200000000007 enabled=true phases=3
New Line.u_idlinea188_idtramos_9 bus1=u_17 bus2=u_36 length=4.909 units=0 r1=0.000952086 r0=0.00109752 x1=0.00033682 x0=0.00172989 c1=0.0109851 c0=0.0035978200000000007 enabled=true phases=3
New Line.u_idlinea189_idtramos_10 bus1=u_18 bus2=u_19 length=15.029 units=0 r1=0.000952086 r0=0.00109752 x1=0.00033682 x0=0.00172989 c1=0.0109851 c0=0.0035978200000000007 enabled=true phases=3
New Line.u_idlinea190_idtramos_11 bus1=u_105 bus2=u_8 length=2.431 units=0 r1=0.000952086 r0=0.00109752 x1=0.00033682 x0=0.00172989 c1=0.0109851 c0=0.0035978200000000007 enabled=true phases=3
New Line.u_idlinea190_idtramos_12 bus1=u_8 bus2=u_27 length=12.015 units=0 r1=0.000952086 r0=0.00109752 x1=0.00033682 x0=0.00172989 c1=0.0109851 c0=0.0035978200000000007 enabled=true phases=3
New Line.u_idlinea191_idtramos_13 bus1=u_29 bus2=u_31 length=18.212 units=0 r1=0.000952086 r0=0.00109752 x1=0.00033682 x0=0.00172989 c1=0.0109851 c0=0.0035978200000000007 enabled=true phases=3
New Line.u_idlinea176_idtramos_14 bus1=u_95 bus2=u_66 length=29.435 units=0 r1=0.000952086 r0=0.00109752 x1=0.00033682 x0=0.00172989 c1=0.0109851 c0=0.0035978200000000007 enabled=true phases=3
New Line.u_idlinea183_idtramos_15 bus1=u_9 bus2=u_25 length=300.634 units=0 r1=0.000952086 r0=0.00109752 x1=0.00033682 x0=0.00172989 c1=0.0109851 c0=0.0035978200000000007 enabled=true phases=3
New Line.u_idlinea241_idtramos_16 bus1=u_91 bus2=u_85 length=7.26 units=0 r1=0.00048417 r0=0.000629602 x1=0.000315326 x0=0.0017084 c1=0.0117887 c0=0.00367967 enabled=true phases=3
New Line.u_idlinea245_idtramos_17 bus1=u_88 bus2=u_89 length=82.876 units=0 r1=0.00048417 r0=0.000629602 x1=0.000315326 x0=0.0017084 c1=0.0117887 c0=0.00367967 enabled=true phases=3
New Line.u_idlinea247_idtramos_18 bus1=u_93 bus2=u_10 length=9.551 units=0 r1=0.000952086 r0=0.00109752 x1=0.00033682 x0=0.00172989 c1=0.0109851 c0=0.0035978200000000007 enabled=true phases=3
New Line.u_idlinea285_idtramos_19 bus1=u_52 bus2=u_54 length=5.499 units=0 r1=0.000952086 r0=0.00109752 x1=0.00033682 x0=0.00172989 c1=0.0109851 c0=0.0035978200000000007 enabled=true phases=3
New Line.u_idlinea287_idtramos_20 bus1=u_35 bus2=u_11 length=107.469 units=0 r1=0.000952086 r0=0.00109752 x1=0.00033682 x0=0.00172989 c1=0.0109851 c0=0.0035978200000000007 enabled=true phases=3
New Line.u_idlinea288_idtramos_21 bus1=u_46 bus2=u_64 length=22.837 units=0 r1=0.000952086 r0=0.00109752 x1=0.00033682 x0=0.00172989 c1=0.0109851 c0=0.0035978200000000007 enabled=true phases=3
New Line.u_idlinea289_idtramos_22 bus1=u_45 bus2=u_62 length=19.521 units=0 r1=0.000952086 r0=0.00109752 x1=0.00033682 x0=0.00172989 c1=0.0109851 c0=0.0035978200000000007 enabled=true phases=3
New Line.u_idlinea663_idtramos_23 bus1=u_99 bus2=u_101 length=22.218 units=0 r1=0.000352234 r0=0.000497666 x1=0.000305055 x0=0.00169813 c1=0.012216100000000004 c0=0.0037201300000000003 enabled=true phases=3
New Line.u_idlinea664_idtramos_24 bus1=u_103 bus2=u_12 length=158.78 units=0 r1=0.000275299 r0=0.000420731 x1=0.000297103 x0=0.00169017 c1=0.012569200000000004 c0=0.0037520900000000013 enabled=true phases=3
New Line.u_idlinea664_idtramos_25 bus1=u_12 bus2=u_13 length=69.404 units=0 r1=0.000275299 r0=0.000420731 x1=0.000297103 x0=0.00169017 c1=0.012569200000000004 c0=0.0037520900000000013 enabled=true phases=3
New Line.u_idlinea665_idtramos_26 bus1=u_13 bus2=u_2 length=387.989 units=0 r1=0.000275299 r0=0.000420731 x1=0.000297103 x0=0.00169017 c1=0.012569200000000004 c0=0.0037520900000000013 enabled=true phases=3
New Line.u_idlinea666_idtramos_27 bus1=u_2 bus2=u_120 length=26.083 units=0 r1=0.000275299 r0=0.000420731 x1=0.000297103 x0=0.00169017 c1=0.012569200000000004 c0=0.0037520900000000013 enabled=true phases=3
New Line.u_idlinea667_idtramos_28 bus1=u_137 bus2=u_94 length=102.941 units=0 r1=0.000275299 r0=0.000420731 x1=0.000297103 x0=0.00169017 c1=0.012569200000000004 c0=0.0037520900000000013 enabled=true phases=3
New Line.u_idlinea668_idtramos_29 bus1=u_95 bus2=u_14 length=94.851 units=0 r1=0.000275299 r0=0.000420731 x1=0.000297103 x0=0.00169017 c1=0.012569200000000004 c0=0.0037520900000000013 enabled=true phases=3
New Line.u_idlinea669_idtramos_30 bus1=u_14 bus2=u_15 length=150.482 units=0 r1=0.000275299 r0=0.000420731 x1=0.000297103 x0=0.00169017 c1=0.012569200000000004 c0=0.0037520900000000013 enabled=true phases=3
New Line.u_idlinea669_idtramos_31 bus1=u_15 bus2=u_42 length=4.348 units=0 r1=0.000275299 r0=0.000420731 x1=0.000297103 x0=0.00169017 c1=0.012569200000000004 c0=0.0037520900000000013 enabled=true phases=3
New Line.u_idlinea670_idtramos_32 bus1=u_42 bus2=u_16 length=220.821 units=0 r1=0.000275299 r0=0.000420731 x1=0.000297103 x0=0.00169017 c1=0.012569200000000004 c0=0.0037520900000000013 enabled=true phases=3
New Line.u_idlinea671_idtramos_33 bus1=u_16 bus2=u_17 length=21.214 units=0 r1=0.000275299 r0=0.000420731 x1=0.000297103 x0=0.00169017 c1=0.012569200000000004 c0=0.0037520900000000013 enabled=true phases=3
New Line.u_idlinea672_idtramos_34 bus1=u_17 bus2=u_18 length=121.287 units=0 r1=0.000275299 r0=0.000420731 x1=0.000297103 x0=0.00169017 c1=0.012569200000000004 c0=0.0037520900000000013 enabled=true phases=3
New Line.u_idlinea673_idtramos_35 bus1=u_18 bus2=u_104 length=66.333 units=0 r1=0.000275299 r0=0.000420731 x1=0.000297103 x0=0.00169017 c1=0.012569200000000004 c0=0.0037520900000000013 enabled=true phases=3
New Line.u_idlinea674_idtramos_36 bus1=u_19 bus2=u_20 length=108.244 units=0 r1=0.000952086 r0=0.00109752 x1=0.00033682 x0=0.00172989 c1=0.0109851 c0=0.0035978200000000007 enabled=true phases=3
New Line.u_idlinea674_idtramos_37 bus1=u_20 bus2=u_33 length=86.812 units=0 r1=0.000952086 r0=0.00109752 x1=0.00033682 x0=0.00172989 c1=0.0109851 c0=0.0035978200000000007 enabled=true phases=3
New Line.u_idlinea675_idtramos_38 bus1=u_105 bus2=u_84 length=76.506 units=0 r1=0.000952086 r0=0.00109752 x1=0.00033682 x0=0.00172989 c1=0.0109851 c0=0.0035978200000000007 enabled=true phases=3
New Line.u_idlinea676_idtramos_39 bus1=u_84 bus2=u_21 length=10.337 units=0 r1=0.000952086 r0=0.00109752 x1=0.00033682 x0=0.00172989 c1=0.0109851 c0=0.0035978200000000007 enabled=true phases=3
New Line.u_idlinea676_idtramos_40 bus1=u_21 bus2=u_26 length=458.628 units=0 r1=0.000952086 r0=0.00109752 x1=0.00033682 x0=0.00172989 c1=0.0109851 c0=0.0035978200000000007 enabled=true phases=3
New Line.u_idlinea677_idtramos_41 bus1=u_26 bus2=u_22 length=7.948 units=0 r1=0.000952086 r0=0.00109752 x1=0.00033682 x0=0.00172989 c1=0.0109851 c0=0.0035978200000000007 enabled=true phases=3
New Line.u_idlinea678_idtramos_42 bus1=u_22 bus2=u_23 length=53.335 units=0 r1=0.000952086 r0=0.00109752 x1=0.00033682 x0=0.00172989 c1=0.0109851 c0=0.0035978200000000007 enabled=true phases=3
New Line.u_idlinea678_idtramos_43 bus1=u_23 bus2=u_24 length=5.39 units=0 r1=0.000952086 r0=0.00109752 x1=0.00033682 x0=0.00172989 c1=0.0109851 c0=0.0035978200000000007 enabled=true phases=3
New Line.u_idlinea679_idtramos_44 bus1=u_25 bus2=u_26 length=29.239 units=0 r1=0.000952086 r0=0.00109752 x1=0.00033682 x0=0.00172989 c1=0.0109851 c0=0.0035978200000000007 enabled=true phases=3
New Line.u_idlinea680_idtramos_45 bus1=u_27 bus2=u_28 length=281.24 units=0 r1=0.000952086 r0=0.00109752 x1=0.00033682 x0=0.00172989 c1=0.0109851 c0=0.0035978200000000007 enabled=true phases=3
New Line.u_idlinea681_idtramos_46 bus1=u_28 bus2=u_29 length=103.385 units=0 r1=0.000952086 r0=0.00109752 x1=0.00033682 x0=0.00172989 c1=0.0109851 c0=0.0035978200000000007 enabled=true phases=3
New Line.u_idlinea682_idtramos_47 bus1=u_29 bus2=u_30 length=272.43 units=0 r1=0.000952086 r0=0.00109752 x1=0.00033682 x0=0.00172989 c1=0.0109851 c0=0.0035978200000000007 enabled=true phases=3
New Line.u_idlinea683_idtramos_48 bus1=u_31 bus2=u_32 length=35.538 units=0 r1=0.000952086 r0=0.00109752 x1=0.00033682 x0=0.00172989 c1=0.0109851 c0=0.0035978200000000007 enabled=true phases=3
New Line.u_idlinea684_idtramos_49 bus1=u_33 bus2=u_34 length=236.711 units=0 r1=0.000952086 r0=0.00109752 x1=0.00033682 x0=0.00172989 c1=0.0109851 c0=0.0035978200000000007 enabled=true phases=3
New Line.u_idlinea685_idtramos_50 bus1=u_34 bus2=u_35 length=190.777 units=0 r1=0.000952086 r0=0.00109752 x1=0.00033682 x0=0.00172989 c1=0.0109851 c0=0.0035978200000000007 enabled=true phases=3
New Line.u_idlinea686_idtramos_51 bus1=u_36 bus2=u_37 length=8.23 units=0 r1=0.000952086 r0=0.00109752 x1=0.00033682 x0=0.00172989 c1=0.0109851 c0=0.0035978200000000007 enabled=true phases=3
New Line.u_idlinea687_idtramos_52 bus1=u_37 bus2=u_38 length=119.377 units=0 r1=0.000952086 r0=0.00109752 x1=0.00033682 x0=0.00172989 c1=0.0109851 c0=0.0035978200000000007 enabled=true phases=3
New Line.u_idlinea687_idtramos_53 bus1=u_38 bus2=u_39 length=231.027 units=0 r1=0.000952086 r0=0.00109752 x1=0.00033682 x0=0.00172989 c1=0.0109851 c0=0.0035978200000000007 enabled=true phases=3
New Line.u_idlinea689_idtramos_54 bus1=u_40 bus2=u_41 length=24.954 units=0 r1=0.000663124 r0=0.000808557 x1=0.000325502 x0=0.00171857 c1=0.011393900000000004 c0=0.0036404500000000004 enabled=true phases=3
New Line.u_idlinea689_idtramos_55 bus1=u_41 bus2=u_42 length=30.215 units=0 r1=0.000663124 r0=0.000808557 x1=0.000325502 x0=0.00171857 c1=0.011393900000000004 c0=0.0036404500000000004 enabled=true phases=3
New Line.u_idlinea690_idtramos_56 bus1=u_43 bus2=u_40 length=91.885 units=0 r1=0.000663124 r0=0.000808557 x1=0.000325502 x0=0.00171857 c1=0.011393900000000004 c0=0.0036404500000000004 enabled=true phases=3
New Line.u_idlinea692_idtramos_57 bus1=u_47 bus2=u_44 length=130.526 units=0 r1=0.000663124 r0=0.000808557 x1=0.000325502 x0=0.00171857 c1=0.011393900000000004 c0=0.0036404500000000004 enabled=true phases=3
New Line.u_idlinea693_idtramos_58 bus1=u_48 bus2=u_45 length=36.926 units=0 r1=0.000663124 r0=0.000808557 x1=0.000325502 x0=0.00171857 c1=0.011393900000000004 c0=0.0036404500000000004 enabled=true phases=3
New Line.u_idlinea693_idtramos_59 bus1=u_45 bus2=u_46 length=118.705 units=0 r1=0.000663124 r0=0.000808557 x1=0.000325502 x0=0.00171857 c1=0.011393900000000004 c0=0.0036404500000000004 enabled=true phases=3
New Line.u_idlinea693_idtramos_60 bus1=u_46 bus2=u_47 length=26.459 units=0 r1=0.000663124 r0=0.000808557 x1=0.000325502 x0=0.00171857 c1=0.011393900000000004 c0=0.0036404500000000004 enabled=true phases=3
New Line.u_idlinea694_idtramos_61 bus1=u_50 bus2=u_48 length=8.225 units=0 r1=0.000663124 r0=0.000808557 x1=0.000325502 x0=0.00171857 c1=0.011393900000000004 c0=0.0036404500000000004 enabled=true phases=3
New Line.u_idlinea695_idtramos_62 bus1=u_49 bus2=u_50 length=8.515 units=0 r1=0.000663124 r0=0.000808557 x1=0.000325502 x0=0.00171857 c1=0.011393900000000004 c0=0.0036404500000000004 enabled=true phases=3
New Line.u_idlinea696_idtramos_63 bus1=u_51 bus2=u_52 length=66.991 units=0 r1=0.000952086 r0=0.00109752 x1=0.00033682 x0=0.00172989 c1=0.0109851 c0=0.0035978200000000007 enabled=true phases=3
New Line.u_idlinea697_idtramos_64 bus1=u_52 bus2=u_53 length=213.742 units=0 r1=0.000952086 r0=0.00109752 x1=0.00033682 x0=0.00172989 c1=0.0109851 c0=0.0035978200000000007 enabled=true phases=3
New Line.u_idlinea698_idtramos_65 bus1=u_54 bus2=u_55 length=85.893 units=0 r1=0.000952086 r0=0.00109752 x1=0.00033682 x0=0.00172989 c1=0.0109851 c0=0.0035978200000000007 enabled=true phases=3
New Line.u_idlinea698_idtramos_66 bus1=u_55 bus2=u_56 length=24.079 units=0 r1=0.000952086 r0=0.00109752 x1=0.00033682 x0=0.00172989 c1=0.0109851 c0=0.0035978200000000007 enabled=true phases=3
New Line.u_idlinea699_idtramos_67 bus1=u_61 bus2=u_49 length=137.878 units=0 r1=0.000663124 r0=0.000808557 x1=0.000325502 x0=0.00171857 c1=0.011393900000000004 c0=0.0036404500000000004 enabled=true phases=3
New Line.u_idlinea700_idtramos_68 bus1=u_57 bus2=u_58 length=118.982 units=0 r1=0.000952086 r0=0.00109752 x1=0.00033682 x0=0.00172989 c1=0.0109851 c0=0.0035978200000000007 enabled=true phases=3
New Line.u_idlinea701_idtramos_69 bus1=u_58 bus2=u_59 length=178.168 units=0 r1=0.000952086 r0=0.00109752 x1=0.00033682 x0=0.00172989 c1=0.0109851 c0=0.0035978200000000007 enabled=true phases=3
New Line.u_idlinea702_idtramos_70 bus1=u_60 bus2=u_61 length=450.486 units=0 r1=0.000663124 r0=0.000808557 x1=0.000325502 x0=0.00171857 c1=0.011393900000000004 c0=0.0036404500000000004 enabled=true phases=3
New Line.u_idlinea703_idtramos_71 bus1=u_62 bus2=u_63 length=107.127 units=0 r1=0.000952086 r0=0.00109752 x1=0.00033682 x0=0.00172989 c1=0.0109851 c0=0.0035978200000000007 enabled=true phases=3
New Line.u_idlinea704_idtramos_72 bus1=u_64 bus2=u_65 length=101.993 units=0 r1=0.000952086 r0=0.00109752 x1=0.00033682 x0=0.00172989 c1=0.0109851 c0=0.0035978200000000007 enabled=true phases=3
New Line.u_idlinea705_idtramos_73 bus1=u_66 bus2=u_67 length=78.239 units=0 r1=0.000952086 r0=0.00109752 x1=0.00033682 x0=0.00172989 c1=0.0109851 c0=0.0035978200000000007 enabled=true phases=3
New Line.u_idlinea706_idtramos_74 bus1=u_68 bus2=u_69 length=132.711 units=0 r1=0.000952086 r0=0.00109752 x1=0.00033682 x0=0.00172989 c1=0.0109851 c0=0.0035978200000000007 enabled=true phases=3
New Line.u_idlinea707_idtramos_75 bus1=u_70 bus2=u_71 length=172.797 units=0 r1=0.00048417 r0=0.000629602 x1=0.000315326 x0=0.0017084 c1=0.0117887 c0=0.00367967 enabled=true phases=3
New Line.u_idlinea708_idtramos_76 bus1=u_71 bus2=u_72 length=158.648 units=0 r1=0.00048417 r0=0.000629602 x1=0.000315326 x0=0.0017084 c1=0.0117887 c0=0.00367967 enabled=true phases=3
New Line.u_idlinea708_idtramos_77 bus1=u_72 bus2=u_73 length=64.426 units=0 r1=0.00048417 r0=0.000629602 x1=0.000315326 x0=0.0017084 c1=0.0117887 c0=0.00367967 enabled=true phases=3
New Line.u_idlinea709_idtramos_78 bus1=u_74 bus2=u_75 length=170.636 units=0 r1=0.000952086 r0=0.00109752 x1=0.00033682 x0=0.00172989 c1=0.0109851 c0=0.0035978200000000007 enabled=true phases=3
New Line.u_idlinea717_idtramos_79 bus1=u_120 bus2=u_76 length=101.643 units=0 r1=0.000275299 r0=0.000420731 x1=0.000297103 x0=0.00169017 c1=0.012569200000000004 c0=0.0037520900000000013 enabled=true phases=3
New Line.u_idlinea731_idtramos_80 bus1=u_77 bus2=u_78 length=150.522 units=0 r1=0.000952086 r0=0.00109752 x1=0.00033682 x0=0.00172989 c1=0.0109851 c0=0.0035978200000000007 enabled=true phases=3
New Line.u_idlinea736_idtramos_81 bus1=u_79 bus2=u_122 length=68.153 units=0 r1=0.00048417 r0=0.000629602 x1=0.000315326 x0=0.0017084 c1=0.0117887 c0=0.00367967 enabled=true phases=3
New Line.u_idlinea737_idtramos_82 bus1=u_123 bus2=u_80 length=187.57 units=0 r1=0.00048417 r0=0.000629602 x1=0.000315326 x0=0.0017084 c1=0.0117887 c0=0.00367967 enabled=true phases=3
New Line.u_idlinea738_idtramos_83 bus1=u_80 bus2=u_81 length=299.964 units=0 r1=0.00048417 r0=0.000629602 x1=0.000315326 x0=0.0017084 c1=0.0117887 c0=0.00367967 enabled=true phases=3
New Line.u_idlinea734_idtramos_84 bus1=u_136 bus2=u_82 length=11.747 units=0 r1=0.00048417 r0=0.000629602 x1=0.000315326 x0=0.0017084 c1=0.0117887 c0=0.00367967 enabled=true phases=3
New Line.u_idlinea735_idtramos_85 bus1=u_82 bus2=u_79 length=73.747 units=0 r1=0.00048417 r0=0.000629602 x1=0.000315326 x0=0.0017084 c1=0.0117887 c0=0.00367967 enabled=true phases=3
New Line.u_idlinea757_idtramos_86 bus1=u_83 bus2=u_84 length=36.57 units=0 r1=0.000952086 r0=0.00109752 x1=0.00033682 x0=0.00172989 c1=0.0109851 c0=0.0035978200000000007 enabled=true phases=3
New Line.u_idlinea801_idtramos_87 bus1=u_85 bus2=u_86 length=13.14 units=0 r1=0.00048417 r0=0.000629602 x1=0.000315326 x0=0.0017084 c1=0.0117887 c0=0.00367967 enabled=true phases=3
New Line.u_idlinea802_idtramos_88 bus1=u_93 bus2=u_87 length=4.791 units=0 r1=0.000952086 r0=0.00109752 x1=0.00033682 x0=0.00172989 c1=0.0109851 c0=0.0035978200000000007 enabled=true phases=3
New Line.u_idlinea805_idtramos_89 bus1=u_87 bus2=u_88 length=200.145 units=0 r1=0.000952086 r0=0.00109752 x1=0.00033682 x0=0.00172989 c1=0.0109851 c0=0.0035978200000000007 enabled=true phases=3
New Line.u_idlinea806_idtramos_90 bus1=u_89 bus2=u_124 length=338.269 units=0 r1=0.00048417 r0=0.000629602 x1=0.000315326 x0=0.0017084 c1=0.0117887 c0=0.00367967 enabled=true phases=3
New Line.u_idlinea808_idtramos_91 bus1=u_127 bus2=u_90 length=32.501 units=0 r1=0.00048417 r0=0.000629602 x1=0.000315326 x0=0.0017084 c1=0.0117887 c0=0.00367967 enabled=true phases=3
New Line.u_idlinea889_idtramos_92 bus1=u_81 bus2=u_91 length=5.717 units=0 r1=0.000952086 r0=0.00109752 x1=0.00033682 x0=0.00172989 c1=0.0109851 c0=0.0035978200000000007 enabled=true phases=3
New Line.u_idlinea890_idtramos_93 bus1=u_91 bus2=u_92 length=33.353 units=0 r1=0.000952086 r0=0.00109752 x1=0.00033682 x0=0.00172989 c1=0.0109851 c0=0.0035978200000000007 enabled=true phases=3
New Line.u_idlinea890_idtramos_94 bus1=u_92 bus2=u_93 length=15.535 units=0 r1=0.000952086 r0=0.00109752 x1=0.00033682 x0=0.00172989 c1=0.0109851 c0=0.0035978200000000007 enabled=true phases=3
New Line.u_idlinea905_idtramos_95 bus1=u_94 bus2=u_95 length=121.726 units=0 r1=0.000275299 r0=0.000420731 x1=0.000297103 x0=0.00169017 c1=0.012569200000000004 c0=0.0037520900000000013 enabled=true phases=3
New Line.u_idlinea906_idtramos_96 bus1=u_120 bus2=u_96 length=17.683 units=0 r1=0.000952086 r0=0.00109752 x1=0.00033682 x0=0.00172989 c1=0.0109851 c0=0.0035978200000000007 enabled=true phases=3
New Line.u_idlinea907_idtramos_97 bus1=u_96 bus2=u_97 length=69.917 units=0 r1=0.000952086 r0=0.00109752 x1=0.00033682 x0=0.00172989 c1=0.0109851 c0=0.0035978200000000007 enabled=true phases=3
New Line.u_idlinea940_idtramos_98 bus1=u_98 bus2=u_99 length=26.767 units=0 r1=0.000352234 r0=0.000497666 x1=0.000305055 x0=0.00169813 c1=0.012216100000000004 c0=0.0037201300000000003 enabled=true phases=3
New Line.u_idlinea192_idtramos_99 bus1=u_100 bus2=u_98 length=10.604 units=0 r1=0.000352234 r0=0.000497666 x1=0.000305055 x0=0.00169813 c1=0.012216100000000004 c0=0.0037201300000000003 enabled=true phases=3
New Line.u_idlinea193_idtramos_100 bus1=u_101 bus2=u_102 length=42.938 units=0 r1=0.000275299 r0=0.000420731 x1=0.000297103 x0=0.00169017 c1=0.012569200000000004 c0=0.0037520900000000013 enabled=true phases=3
New Line.u_idlinea193_idtramos_101 bus1=u_102 bus2=u_103 length=4.17 units=0 r1=0.000275299 r0=0.000420731 x1=0.000297103 x0=0.00169017 c1=0.012569200000000004 c0=0.0037520900000000013 enabled=true phases=3
New Line.u_idlinea194_idtramos_102 bus1=u_104 bus2=u_105 length=189.669 units=0 r1=0.000952086 r0=0.00109752 x1=0.00033682 x0=0.00172989 c1=0.0109851 c0=0.0035978200000000007 enabled=true phases=3
New Line.u_idlinea156_idtramos_103 bus1=u_76 bus2=u_1 length=131.217 units=0 r1=0.000952086 r0=0.00109752 x1=0.00033682 x0=0.00172989 c1=0.0109851 c0=0.0035978200000000007 enabled=true phases=3
New Line.u_idlinea157_idtramos_104 bus1=u_1 bus2=u_121 length=27.112 units=0 r1=0.00048417 r0=0.000629602 x1=0.000315326 x0=0.0017084 c1=0.0117887 c0=0.00367967 enabled=true phases=3
New Line.u_idlinea226_idtramos_105 bus1=u_89 bus2=u_118 length=15.961 units=0 r1=0.000952086 r0=0.00109752 x1=0.00033682 x0=0.00172989 c1=0.0109851 c0=0.0035978200000000007 enabled=true phases=3
New Line.u_idlinea892_idtramos_106 bus1=u_24 bus2=u_106 length=6.102 units=0 r1=0.000952086 r0=0.00109752 x1=0.00033682 x0=0.00172989 c1=0.0109851 c0=0.0035978200000000007 enabled=true phases=3
New Line.u_idlinea896_idtramos_107 bus1=u_3 bus2=u_107 length=5.345 units=0 r1=0.000275299 r0=0.000420731 x1=0.000297103 x0=0.00169017 c1=0.012569200000000004 c0=0.0037520900000000013 enabled=true phases=3
New Line.u_idlinea898_idtramos_108 bus1=u_35 bus2=u_108 length=13.921 units=0 r1=0.000952086 r0=0.00109752 x1=0.00033682 x0=0.00172989 c1=0.0109851 c0=0.0035978200000000007 enabled=true phases=3
New Line.u_idlinea904_idtramos_109 bus1=u_44 bus2=u_43 length=38.66 units=0 r1=0.000663124 r0=0.000808557 x1=0.000325502 x0=0.00171857 c1=0.011393900000000004 c0=0.0036404500000000004 enabled=true phases=3
New Line.u_idlinea970_idtramos_110 bus1=u_63 bus2=u_109 length=173.629 units=0 r1=0.000952086 r0=0.00109752 x1=0.00033682 x0=0.00172989 c1=0.0109851 c0=0.0035978200000000007 enabled=true phases=3
New Line.u_idlinea983_idtramos_111 bus1=u_126 bus2=u_110 length=14.412 units=0 r1=0.000952086 r0=0.00109752 x1=0.00033682 x0=0.00172989 c1=0.0109851 c0=0.0035978200000000007 enabled=true phases=3
New Line.u_idlinea975_idtramos_112 bus1=u_128 bus2=u_111 length=140.048 units=0 r1=0.00048417 r0=0.000629602 x1=0.000315326 x0=0.0017084 c1=0.0117887 c0=0.00367967 enabled=true phases=3
New Line.u_idlinea981_idtramos_113 bus1=u_90 bus2=u_112 length=17.127 units=0 r1=0.000952086 r0=0.00109752 x1=0.00033682 x0=0.00172989 c1=0.0109851 c0=0.0035978200000000007 enabled=true phases=3
New Line.u_idlinea982_idtramos_114 bus1=u_129 bus2=u_113 length=12.653 units=0 r1=0.000952086 r0=0.00109752 x1=0.00033682 x0=0.00172989 c1=0.0109851 c0=0.0035978200000000007 enabled=true phases=3
New Line.u_idlinea984_idtramos_115 bus1=u_128 bus2=u_133 length=23.145 units=0 r1=0.000952086 r0=0.00109752 x1=0.00033682 x0=0.00172989 c1=0.0109851 c0=0.0035978200000000007 enabled=true phases=3
New Line.u_idlinea985_idtramos_116 bus1=u_117 bus2=u_114 length=236.541 units=0 r1=0.000952086 r0=0.00109752 x1=0.00033682 x0=0.00172989 c1=0.0109851 c0=0.0035978200000000007 enabled=true phases=3
New Line.u_idlinea986_idtramos_117 bus1=u_114 bus2=u_115 length=37.272 units=0 r1=0.000952086 r0=0.00109752 x1=0.00033682 x0=0.00172989 c1=0.0109851 c0=0.0035978200000000007 enabled=true phases=3
New Line.u_idlinea987_idtramos_118 bus1=u_115 bus2=u_116 length=125.247 units=0 r1=0.000952086 r0=0.00109752 x1=0.00033682 x0=0.00172989 c1=0.0109851 c0=0.0035978200000000007 enabled=true phases=3
New Line.u_idlinea988_idtramos_119 bus1=u_134 bus2=u_117 length=213.247 units=0 r1=0.000952086 r0=0.00109752 x1=0.00033682 x0=0.00172989 c1=0.0109851 c0=0.0035978200000000007 enabled=true phases=3
New Line.u_idlinea989_idtramos_120 bus1=u_118 bus2=u_119 length=178.0 units=0 r1=0.000952086 r0=0.00109752 x1=0.00033682 x0=0.00172989 c1=0.0109851 c0=0.0035978200000000007 enabled=true phases=3
New Line.u_idlinea990_idtramos_121 bus1=u_120 bus2=u_137 length=209.002 units=0 r1=0.000275299 r0=0.000420731 x1=0.000297103 x0=0.00169017 c1=0.012569200000000004 c0=0.0037520900000000013 enabled=true phases=3
New Line.u_idlinea992_idtramos_122 bus1=u_121 bus2=u_135 length=82.172 units=0 r1=0.00048417 r0=0.000629602 x1=0.000315326 x0=0.0017084 c1=0.0117887 c0=0.00367967 enabled=true phases=3
New Line.u_idlinea993_idtramos_123 bus1=u_122 bus2=u_123 length=22.776 units=0 r1=0.00048417 r0=0.000629602 x1=0.000315326 x0=0.0017084 c1=0.0117887 c0=0.00367967 enabled=true phases=3
New Line.u_idlinea994_idtramos_124 bus1=u_124 bus2=u_125 length=33.231 units=0 r1=0.00048417 r0=0.000629602 x1=0.000315326 x0=0.0017084 c1=0.0117887 c0=0.00367967 enabled=true phases=3
New Line.u_idlinea994_idtramos_125 bus1=u_125 bus2=u_126 length=55.396 units=0 r1=0.00048417 r0=0.000629602 x1=0.000315326 x0=0.0017084 c1=0.0117887 c0=0.00367967 enabled=true phases=3
New Line.u_idlinea995_idtramos_126 bus1=u_127 bus2=u_128 length=137.898 units=0 r1=0.00048417 r0=0.000629602 x1=0.000315326 x0=0.0017084 c1=0.0117887 c0=0.00367967 enabled=true phases=3
New Line.u_idlinea996_idtramos_127 bus1=u_129 bus2=u_90 length=165.095 units=0 r1=0.00048417 r0=0.000629602 x1=0.000315326 x0=0.0017084 c1=0.0117887 c0=0.00367967 enabled=true phases=3
New Line.u_idlinea997_idtramos_128 bus1=u_126 bus2=u_129 length=80.286 units=0 r1=0.00048417 r0=0.000629602 x1=0.000315326 x0=0.0017084 c1=0.0117887 c0=0.00367967 enabled=true phases=3
New Line.u_idlinea1030_idtramos_129 bus1=u_110 bus2=u_130 length=187.139 units=0 r1=0.000952086 r0=0.00109752 x1=0.00033682 x0=0.00172989 c1=0.0109851 c0=0.0035978200000000007 enabled=true phases=3
New Line.u_idlinea1031_idtramos_130 bus1=u_113 bus2=u_131 length=11.291 units=0 r1=0.000952086 r0=0.00109752 x1=0.00033682 x0=0.00172989 c1=0.0109851 c0=0.0035978200000000007 enabled=true phases=3
New Line.u_idlinea1032_idtramos_131 bus1=u_112 bus2=u_132 length=229.251 units=0 r1=0.000952086 r0=0.00109752 x1=0.00033682 x0=0.00172989 c1=0.0109851 c0=0.0035978200000000007 enabled=true phases=3
New Line.u_idlinea1033_idtramos_132 bus1=u_133 bus2=u_134 length=174.929 units=0 r1=0.000952086 r0=0.00109752 x1=0.00033682 x0=0.00172989 c1=0.0109851 c0=0.0035978200000000007 enabled=true phases=3
New Line.u_idlinea1040_idtramos_133 bus1=u_135 bus2=u_136 length=285.379 units=0 r1=0.00048417 r0=0.000629602 x1=0.000315326 x0=0.0017084 c1=0.0117887 c0=0.00367967 enabled=true phases=3
New Line.u_idlinea180_idtramos_134 bus1=u_137 bus2=u_70 length=27.969 units=0 r1=0.00048417 r0=0.000629602 x1=0.000315326 x0=0.0017084 c1=0.0117887 c0=0.00367967 enabled=true phases=3
New Line.u_idlinea181_idtramos_135 bus1=u_137 bus2=u_74 length=14.417 units=0 r1=0.000952086 r0=0.00109752 x1=0.00033682 x0=0.00172989 c1=0.0109851 c0=0.0035978200000000007 enabled=true phases=3
New Line.u_idlinea182_idtramos_136 bus1=u_95 bus2=u_68 length=22.295 units=0 r1=0.000952086 r0=0.00109752 x1=0.00033682 x0=0.00172989 c1=0.0109851 c0=0.0035978200000000007 enabled=true phases=3
